6
-7.8003726832028320e+01 frame 59   xyz file generated by TeraChem
C 0.000000000    0.000000000    0.101944554
C 0.000000000    0.000000000    2.598055446
H 0.000000000    1.743557978    3.672987826
H 0.000000000   -1.743557978    3.672987826
H 0.000000000    1.743557978   -0.972987826
H 0.000000000   -1.743557978   -0.972987826
