6
-7.8003893500583132e+01 frame 0   xyz file generated by TeraChem
     C     0.0315378238   -0.0045109458    0.0492643093
     C     0.0300306029   -0.0042017312    1.3923550797
     H    -0.1512446225    0.8903220400    1.9584594803
     H     0.2100427148   -0.8986602373    1.9589150215
     H    -0.1484324347    0.8896879968   -0.5177407221
     H     0.2129551547   -0.8991859451   -0.5165520993
